Version 4
SHEET 1 880 680
WIRE 16 96 -64 96
WIRE 160 96 16 96
WIRE 368 96 256 96
WIRE -64 128 -64 96
WIRE 368 144 368 96
WIRE 176 192 176 144
FLAG -64 208 0
FLAG 176 272 0
FLAG 368 224 0
FLAG 16 96 VBAT
SYMBOL pmos 256 144 M270
SYMATTR InstName M1
SYMATTR Value Si4913DY
SYMBOL Misc\\battery -64 112 R0
WINDOW 123 0 0 Left 0
WINDOW 39 24 132 Left 2
SYMATTR InstName V1
SYMATTR Value 3
SYMATTR SpiceLine Rser=0.1
SYMBOL voltage 176 176 R0
WINDOW 123 0 0 Left 0
WINDOW 39 0 0 Left 0
SYMATTR InstName V2
SYMATTR Value PULSE(0 3 1 0 0 1 2 50)
SYMBOL res 352 128 R0
SYMATTR InstName R1
SYMATTR Value 1000
SYMATTR SpiceLine tol=1
TEXT -98 296 Left 2 !.tran 10 startup
